WIDTH=32;
DEPTH=32;

ADDRESS_RADIX=HEX;
DATA_RADIX=HEX;

CONTENT BEGIN
    00 : 01000000;
    01 : 02000000;
    02 : 04000000;
    03 : 08000000;
    04 : 10000000;
    05 : 20000000;
    06 : 40000000;
    07 : 80000000;
    08 : 1B000000;
    09 : 36000000;

    -- các từ Rcon không dùng trong AES-128
    0A : 00000000;
    0B : 00000000;
    0C : 00000000;
    0D : 00000000;
    0E : 00000000;
    0F : 00000000;

    10 : 00000000;
    11 : 00000000;
    12 : 00000000;
    13 : 00000000;
    14 : 00000000;
    15 : 00000000;
    16 : 00000000;
    17 : 00000000;
    18 : 00000000;
    19 : 00000000;

    1A : 00000000;
    1B : 00000000;
    1C : 00000000;
    1D : 00000000;
    1E : 00000000;
    1F : 00000000;
END;
